data/crac/crac-io/crac-io-commons/src/test/resources/TestCase_PstAmbiguity.uct
##C 2007.05.01
##N
##ZBE
BBE1AA1  BE1          0 2 400.00 2000.00 0.00000 -1500.0 0.00000 9000.00 -9000.0 9000.00 -9000.0
BBE2AA1  BE2          0 2 400.00 1000.00 0.00000 -3000.0 0.00000 9000.00 -9000.0 9000.00 -9000.0
BBE2AA11 BE2          0 2 400.00 1500.00 0.00000 -2500.0 0.00000 9000.00 -9000.0 9000.00 -9000.0
BBE2AA12 BE2          0 2 400.00 1500.00 0.00000 -2500.0 0.00000 9000.00 -9000.0 9000.00 -9000.0
BBE2AA13 BE2          0 2 400.00 1500.00 0.00000 -2500.0 0.00000 9000.00 -9000.0 9000.00 -9000.0
BBE3AA1  BE3          0 2 400.00 1500.00 0.00000 -2500.0 0.00000 9000.00 -9000.0 9000.00 -9000.0
BBE1AA2  BE1          0 2 225.00 1000.00 0.00000 -500.00 0.00000 9000.00 -9000.0 9000.00 -9000.0
BBE2AA2  BE3          0 2 225.00 500.000 0.00000 -500.00 0.00000 9000.00 -9000.0 9000.00 -9000.0
##ZDE
DDE1AA1  DE1          0 2 400.00 3500.00 0.00000 -2500.0 0.00000 9000.00 -9000.0 9000.00 -9000.0
DDE2AA1  DE2          0 2 400.00 3000.00 0.00000 -2000.0 0.00000 9000.00 -9000.0 9000.00 -9000.0
DDE3AA1  DE3          0 2 400.00 2000.00 0.00000 -1500.0 0.00000 9000.00 -9000.0 9000.00 -9000.0
##ZFR
FFR1AA1  FR1          0 2 400.00 1000.00 0.00000 -2000.0 0.00000 9000.00 -9000.0 9000.00 -9000.0
FFR2AA1  FR2          0 2 400.00 3500.00 0.00000 -2500.0 0.00000 9000.00 -9000.0 9000.00 -9000.0
FFR3AA1  FR3          0 2 400.00 1500.00 0.00000 -3000.0 0.00000 9000.00 -9000.0 9000.00 -9000.0
FFR1AA2  FR1          0 2 225.00 1000.00 0.00000 -500.00 0.00000 9000.00 -9000.0 9000.00 -9000.0
FFR3AA2  FR3          0 2 225.00 1500.00 0.00000 -500.00 0.00000 9000.00 -9000.0 9000.00 -9000.0
##ZNL
NNL1AA1  NL1          0 2 400.00 1000.00 0.00000 -1500.0 0.00000 9000.00 -9000.0 9000.00 -9000.0
NNL2AA1  NL2          0 2 400.00 1000.00 0.00000 -1500.0 0.00000 9000.00 -9000.0 9000.00 -9000.0
NNL3AA1  NL3          0 2 400.00 2500.00 0.00000 -2000.0 0.00000 9000.00 -9000.0 9000.00 -9000.0
##ZXX
XFRDE11               1 0        0.00000 0.00000 0.00000 0.00000
XDENL11               1 0        0.00000 0.00000 0.00000 0.00000
XNLBE11               1 0        0.00000 0.00000 0.00000 0.00000
XBEFR11               1 0        0.00000 0.00000 0.00000 0.00000
XBEFR22               1 0        0.00000 0.00000 0.00000 0.00000
XBEFR32               1 0        0.00000 0.00000 0.00000 0.00000
XBE2AL1               1 0        123.000 0.00000 0.00000 0.00000
XDE2AL1               1 0        -123.00 0.00000 0.00000 0.00000
##L
BBE1AA1  BBE2AA1  1 0 0.0000 10.000 0.000000   5000
BBE1AA1  BBE3AA1  1 0 0.0000 10.000 0.000000   5000 BR BE1BE3
BBE1AA2  BBE2AA2  1 0 0.0000 10.000 0.000000   1000 BR BE1BE2
FFR1AA1  FFR2AA1  1 0 0.0000 10.000 0.000000   5000 BR FR1FR2
FFR1AA1  FFR3AA1  1 0 0.0000 10.000 0.000000   5000
FFR1AA1  FFR3AA1  2 0 0.0000 10.000 0.000000   5000 BR FR1FR3
FFR2AA1  FFR3AA1  1 0 0.0000 10.000 0.000000   5000
FFR1AA2  FFR3AA2  1 0 0.0000 10.000 0.000000   1000
DDE1AA1  DDE2AA1  1 0 0.0000 10.000 0.000000   5000
DDE1AA1  DDE3AA1  1 0 0.0000 10.000 0.000000   5000
DDE2AA1  DDE3AA1  1 0 0.0000 10.000 0.000000   5000
NNL1AA1  NNL2AA1  1 0 0.0000 10.000 0.000000   5000
NNL1AA1  NNL3AA1  1 0 0.0000 10.000 0.000000   5000
NNL2AA1  NNL3AA1  1 0 0.0000 10.000 0.000000   5000
XFRDE11  DDE3AA1  1 0 0.0000 10.000 0.000000   4800 TL DE3X
XFRDE11  FFR2AA1  1 0 0.0000 10.000 0.000000   4400 TL FR2X
DDE2AA1  XDENL11  1 0 0.0000 10.000 0.000000   5000 TL DE2X
NNL3AA1  XDENL11  1 0 0.0000 10.000 0.000000   5000 TL NL3X
NNL2AA1  XNLBE11  1 0 0.0000 10.000 0.000000   3200 TL NL2X
XNLBE11  BBE3AA1  1 0 0.0000 10.000 0.000000   2800 TL BE3X
FFR3AA1  XBEFR11  1 0 0.0000 10.000 0.000000   5000
XBEFR11  BBE2AA1  1 0 0.0000 10.000 0.000000   5000 TL BE2X
XBEFR22  BBE2AA2  1 0 0.0000 10.000 0.000000   1000
XBEFR22  FFR3AA2  1 0 0.0000 10.000 0.000000   1000
BBE1AA2  XBEFR32  1 0 0.0000 10.000 0.000000   1000 TL BE1X
FFR1AA2  XBEFR32  1 0 0.0000 10.000 0.000000   1000
BBE2AA1  XBE2AL1  1 0 0.0000 10.000 0.000000   1250
XDE2AL1  DDE2AA1  1 0 0.0000 10.000 0.000000   1245 BL AL
##T
BBE2AA13 BBE2AA11 1 0 400.0 400.0 1000. 0.0000 10.000 0.000000 0.0	    4500  PST BE
BBE2AA12 BBE2AA11 2 0 400.0 400.0 1000. 0.0000 10.000 0.000000 0.0	    4500  PST BE
BBE1AA1  BBE1AA2  1 0 400.0 225.0 300.0 3.5790 141.29 0.000000 0.0000   1000  TR BE1
BBE2AA2  BBE2AA1  2 0 225.0 400.0 400.0 0.2070 15.900 -5.49000 2.4000   1200
FFR3AA1  FFR3AA2  1 0 400.0 225.0 100.0 0.5600 42.336 -3.33750 0.8562   1000
FFR1AA2  FFR1AA1  5 0 225.0 400.1 344.5 0.2033 13.716 0.000000 0.0000   1500  TR FR1
##R
BBE2AA13 BBE2AA11 1                    -0.68 90.00 16 0         SYMM
BBE2AA12 BBE2AA11 2                    -0.68 90.00 16 0         SYMM
